<?xml version="1.0" encoding="UTF-8"?>

<!-- generated on 05/09/20 01:59:50 by Eclipse SUMO netconvert Version 1.6.0
<configuration xmlns:xsi="http://www.w3.org/2001/XMLSchema-instance" xsi:noNamespaceSchemaLocation="http://sumo.dlr.de/xsd/netconvertConfiguration.xsd">

    <input>
        <node-files value="nodes.xml"/>
        <edge-files value="edges.xml"/>
    </input>

    <output>
        <output-file value="net.net.xml"/>
    </output>

    <tls_building>
        <tls.set value="2"/>
        <tls.cycle.time value="60"/>
        <tls.yellow.time value="-1"/>
    </tls_building>

    <junctions>
        <no-internal-links value="true"/>
    </junctions>

    <report>
        <aggregate-warnings value="5"/>
    </report>

</configuration>
-->

<net version="1.6" junctionCornerDetail="5" limitTurnSpeed="5.50" xmlns:xsi="http://www.w3.org/2001/XMLSchema-instance" xsi:noNamespaceSchemaLocation="http://sumo.dlr.de/xsd/net_file.xsd">

    <location netOffset="200.00,100.00" convBoundary="0.00,0.00,600.00,200.00" origBoundary="-200.00,-100.00,400.00,100.00" projParameter="!"/>

    <edge id="center" from="1" to="5" priority="-1">
        <lane id="center_0" index="0" speed="13.89" length="300.00" shape="200.00,98.40 500.00,98.40"/>
    </edge>
    <edge id="left" from="2" to="3" priority="-1">
        <lane id="left_0" index="0" speed="13.89" length="100.00" shape="601.60,104.00 601.60,200.00"/>
    </edge>
    <edge id="left_d" from="3" to="2" priority="-1">
        <lane id="left_d_0" index="0" speed="13.89" length="100.00" shape="598.40,200.00 598.40,104.00"/>
    </edge>
    <edge id="origin" from="0" to="1" priority="-1">
        <lane id="origin_0" index="0" speed="13.89" length="200.00" shape="0.00,98.40 200.00,98.40"/>
    </edge>
    <edge id="right" from="2" to="4" priority="-1">
        <lane id="right_0" index="0" speed="13.89" length="100.00" shape="598.40,92.80 598.40,0.00"/>
    </edge>
    <edge id="right_u" from="4" to="2" priority="-1">
        <lane id="right_u_0" index="0" speed="13.89" length="100.00" shape="601.60,0.00 601.60,92.80"/>
    </edge>
    <edge id="tls" from="5" to="2" priority="-1">
        <lane id="tls_0" index="0" speed="13.89" length="100.00" shape="500.00,98.40 592.80,98.40"/>
    </edge>

    <tlLogic id="2" type="static" programID="0" offset="0">
        <phase duration="30" state="GgGgrr"/>
        <phase duration="30" state="rrrrGG"/>
    </tlLogic>

    <junction id="0" type="dead_end" x="0.00" y="100.00" incLanes="" intLanes="" shape="0.00,100.00 0.00,96.80"/>
    <junction id="1" type="priority" x="200.00" y="100.00" incLanes="origin_0" intLanes="" shape="200.00,100.00 200.00,96.80 200.00,100.00">
        <request index="0" response="0" foes="0"/>
    </junction>
    <junction id="2" type="traffic_light" x="600.00" y="100.00" incLanes="left_d_0 right_u_0 tls_0" intLanes="" shape="596.80,104.00 603.20,104.00 603.20,92.80 596.80,92.80 596.36,95.02 595.80,95.80 595.02,96.36 594.02,96.69 592.80,96.80 592.80,100.00 595.02,100.44 595.80,101.00 596.36,101.78 596.69,102.78">
        <request index="0" response="000000" foes="111000"/>
        <request index="1" response="100100" foes="100100"/>
        <request index="2" response="000000" foes="100010"/>
        <request index="3" response="010001" foes="010001"/>
        <request index="4" response="000001" foes="001001"/>
        <request index="5" response="000101" foes="000111"/>
    </junction>
    <junction id="3" type="priority" x="600.00" y="200.00" incLanes="left_0" intLanes="" shape="600.00,200.00 603.20,200.00 600.00,200.00">
        <request index="0" response="0" foes="0"/>
    </junction>
    <junction id="4" type="priority" x="600.00" y="0.00" incLanes="right_0" intLanes="" shape="600.00,0.00 596.80,0.00 600.00,0.00">
        <request index="0" response="0" foes="0"/>
    </junction>
    <junction id="5" type="priority" x="500.00" y="100.00" incLanes="center_0" intLanes="" shape="500.00,100.00 500.00,96.80 500.00,100.00">
        <request index="0" response="0" foes="0"/>
    </junction>

    <connection from="center" to="tls" fromLane="0" toLane="0" dir="s" state="M"/>
    <connection from="left" to="left_d" fromLane="0" toLane="0" dir="t" state="M"/>
    <connection from="left_d" to="right" fromLane="0" toLane="0" tl="2" linkIndex="0" dir="s" state="O"/>
    <connection from="left_d" to="left" fromLane="0" toLane="0" tl="2" linkIndex="1" dir="t" state="o"/>
    <connection from="origin" to="center" fromLane="0" toLane="0" dir="s" state="M"/>
    <connection from="right" to="right_u" fromLane="0" toLane="0" dir="t" state="M"/>
    <connection from="right_u" to="left" fromLane="0" toLane="0" tl="2" linkIndex="2" dir="s" state="O"/>
    <connection from="right_u" to="right" fromLane="0" toLane="0" tl="2" linkIndex="3" dir="t" state="o"/>
    <connection from="tls" to="right" fromLane="0" toLane="0" tl="2" linkIndex="4" dir="r" state="o"/>
    <connection from="tls" to="left" fromLane="0" toLane="0" tl="2" linkIndex="5" dir="l" state="o"/>

</net>
